Version 4
SHEET 1 1596 680
WIRE 112 -48 112 -96
WIRE 608 -48 608 -80
WIRE 1008 80 1008 64
WIRE 112 96 112 32
WIRE 112 96 48 96
WIRE 480 96 320 96
WIRE 976 96 848 96
WIRE 48 112 48 96
WIRE 1120 112 1040 112
WIRE 1152 112 1120 112
WIRE 976 128 928 128
WIRE 112 144 112 96
WIRE 320 144 320 96
WIRE 1120 144 1120 112
WIRE 1008 160 1008 144
WIRE 928 256 928 128
WIRE 1120 256 1120 224
WIRE 1120 256 928 256
WIRE 112 272 112 224
WIRE 320 272 320 224
WIRE 608 272 608 240
WIRE 1120 288 1120 256
WIRE 1120 400 1120 368
FLAG 48 112 0
FLAG 320 272 0
FLAG 608 272 0
FLAG 1120 400 0
FLAG 1152 112 Vout
IOPIN 1152 112 Out
FLAG 608 -80 Vcc
IOPIN 608 -80 In
FLAG 112 -96 Vcc
IOPIN 112 -96 In
FLAG 112 272 Vee
IOPIN 112 272 In
FLAG 1008 160 Vcc
IOPIN 1008 160 Out
FLAG 1008 64 Vee
IOPIN 1008 64 Out
SYMBOL voltage 320 128 R0
WINDOW 123 0 0 Left 0
WINDOW 39 0 0 Left 0
SYMATTR InstName V1
SYMATTR Value SINE(0 5 1)
SYMBOL voltage 112 -64 R0
WINDOW 123 0 0 Left 0
WINDOW 39 0 0 Left 0
SYMATTR InstName V2
SYMATTR Value 5
SYMBOL voltage 112 128 R0
WINDOW 123 0 0 Left 0
WINDOW 39 0 0 Left 0
SYMATTR InstName V3
SYMATTR Value 5
SYMBOL res 1104 272 R0
SYMATTR InstName R1
SYMATTR Value 2.45
SYMBOL res 1104 128 R0
SYMATTR InstName R_coil
SYMATTR Value 0.5
SYMBOL DAC\\AD5676R 640 96 R0
SYMATTR InstName U1
SYMBOL OpAmps\\opamp2 1008 176 M180
SYMATTR InstName U2
SYMATTR Value TCA0372
TEXT -56 -184 Left 2 ;TODO: Include power supply
TEXT 872 -144 Left 2 !.include TCA0372.mod
TEXT -58 424 Left 2 !.tran 0 2 0
TEXT 872 -72 Left 2 !.options gmin=1e-11 abstol=1e-11
TEXT 872 -96 Left 2 ;Convergence Aid
